%nproc=1
%chk=ts1-opt-freq.chk
#p external="python3 -u ../pes/h4n_anion_pes.py" opt=(nomicro,ts,noeigen,calcall)

H2 + NH2^- -> H^- + NH3

-1 1
 H          0.5120443033        0.8031011604        0.4395101203
 H          0.5120847274       -0.8030368508        0.4396312209
 H          0.0232024495       -0.0000242087       -1.3141078829
 H          0.0903094563       -0.0000185189       -2.2307322696
 N         -0.0818660930       -0.0000015531        0.1918270870

