%nproc=1
%chk=CH3CN-opt-freq.chk
#p external="python3 -u ../pes/ch3cn_pes.py" opt=nomicro

CH3CN

  0  1
 H      -0.88689100     -0.51204700     -1.56467700
 H       0.88689100     -0.51204700     -1.56467700
 H       0.00000000      1.02409400     -1.56467700
 C       0.00000000      0.00000000      0.26637900
 C       0.00000000      0.00000000     -1.19644000
 N       0.00000000      0.00000000      1.42451400
 

--link1--
%nproc=1
%chk=CH3CN-opt-freq.chk
#p external="python3 -u ../pes/ch3cn_pes.py" freq geom=allcheck

