%nproc=1
%chk=ts-opt-freq.chk
#p external="python3 -u ../pes/ch3cn_pes.py" opt=(ts,calcall,noeigen,nomicro)

ts

  0  1
 H      -1.80311000      0.83157200      0.37039200
 H      -1.70761200     -0.76573900      1.22367500
 H      -1.35370900     -0.64940900     -0.52508600
 C      -1.32506000     -0.13784100      0.42922400
 C       0.18897200      0.37553400      1.22212200
 N       0.50071300     -0.15227900      0.19515100

