%nproc=1
%chk=CH2OH-opt-freq.chk
#p external="python3 -u ../pes/h3co_pes.py" opt=nomicro

CH2OH

0 2
H         -0.8160287642       -0.0652099757       -1.0051374955
H          0.9245894030        0.1315186489        1.2231422666
H         -0.9568081607        0.2045999444        1.2003029743
C         -0.0162644273       -0.0396818636        0.7269265325
O          0.0656483770        0.0127229291       -0.6350665457


--link1--
%nproc=1
%chk=CH2OH-opt-freq.chk
#p external="python3 -u ../pes/h3co_pes.py" freq geom=allcheck

