%nproc=1
%chk=ts1-opt-freq.chk
#p external="python3 -u ../pes/h4cclo_pes.py" opt=(nomicro,ts,noeigen,calcall)

Cl + CH3OH -> HCl + CH3O

0 2
 H     -0.50802366   -0.28625248   -0.00182883
 H      1.01044867    0.97522062    1.81082406
 H      0.23883792   -0.18956036    2.89489588
 H      1.19522077   -0.78936690    1.50241220
 C      0.52755005   -0.00327034    1.85396575
 Cl     0.07520650    0.00387908   -1.32251781
 O     -0.68468561    0.01212648    1.14777179

