%nproc=1
%chk=ts2-opt-freq.chk
#p external="python3 -u ../pes/h4cclo_pes.py" opt=(nomicro,ts,noeigen,calcall)

Cl + CH3OH -> HCl + CH2OH

0 2
 H          0.5949307044       -1.1243240711        1.6251446953
 H         -0.6599788387        1.3866043958        1.8907252165
 H          1.0317705951        1.1263661043        1.3666862685
 H         -0.3264077714        0.6390221975        0.3194903436
 C          0.0234966056        0.7079551531        1.3846280020
 Cl        -0.0036039239       -0.0557010805       -1.5306233462
 O         -0.0499922875       -0.5357855451        2.0245179062

