%nproc=1
%chk=ts1-opt-freq.chk
#p external="python3 -u ../pes/h4cfo_pes.py" opt=(nomicro,ts,noeigen,calcall)

F + CH3OH -> HF + CH3O

0 2
 H     -0.63327793     -0.62621142     -0.27807558
 H      0.17582226     -0.15998748      2.28171074
 H      0.99898593      0.95175324      1.15468361
 H      1.14784569     -0.81284306      0.92103605
 C      0.48998674     -0.00814778      1.24588755
 F      0.19036476      0.01088084     -1.38886881
 O     -0.70031668      0.03397457      0.45690396

