%nprocshared=1
%chk=ts2-opt-freq.chk
#p opt=(calcall,ts,nomicro,noeigen,maxstep=3,gdiis,notrust)
external="python3 -u ../pes/h4cfo_pes.py"

F + CH3OH -> HF + CH2OH

0 2
 H                 -1.41096100   -0.91256400    0.43170800
 H                  0.17278800    1.37340600   -0.03198700
 H                  0.71897900   -0.30850500   -0.27999800
 H                  0.43056408    0.30180241    1.49717491
 C                  0.05667000    0.34243200    0.28990000
 F                  0.62999400   -0.64783300    2.59616900
 O                 -1.30153900    0.00419600    0.16099800

