%nproc=1
%chk=HCl-opt-freq.chk
#p external="python3 -u ../pes/hcl_pes.py" opt=nomicro

HCl

0 1
 H          0.0000000000        0.0000000000       -1.2417634173
 Cl         0.0000000000        0.0000000000        0.0353037266


--link1--
%nproc=1
%chk=HCl-opt-freq.chk
#p external="python3 -u ../pes/hcl_pes.py" freq geom=allcheck

