%nproc=1
%chk=ts1-opt-freq.chk
#p external="python3 -u ../pes/h4sicl_pes.py" opt=(ts,nomicro,calcall,noeigen)

Title Card Required

0 2
 H                  0.00000000    0.00000000    1.47102711
 H                  1.32614491    0.00000000   -0.63663628
 H                 -1.30943504   -0.49124088   -0.82210298
 H                 -0.59675558    1.34213590   -0.37583200
 Si                 0.00000000    0.00000000    0.00000000
 Cl                -0.37752225   -2.24089684   -0.23861533

