%nproc=1
%chk=ts3-opt-freq.chk
#p external="python3 -u ../pes/h4sicl_pes.py" opt=(ts,nomicro,calcall,noeigen)

Title Card Required

0 2
 H                  1.28511800   -0.98002300   -1.21914500
 H                  1.63930900    1.15842500   -0.00071900
 H                  1.28535900   -0.97849600    1.22001900
 H                  2.28169900    2.29651500   -0.00008200
 Si                 0.91671800   -0.21993400   -0.00000500
 Cl                -1.13679600    0.09309800    0.00000000


