%nproc=1
%chk=CH3-opt-freq.chk
#p external="python3 -u ../pes/ch3_pes.py" opt=nomicro

CH3

0 2
H         -0.0000000000       -0.0000004806       -1.0777339555
H          0.9333449540       -0.0000004806        0.5388669718
H         -0.9333449779       -0.0000004806        0.5388669408
C          0.0000000020        0.0000000000        0.0000000036


--link1--
%nproc=1
%chk=CH3-opt-freq.chk
#p external="python3 -u ../pes/ch3_pes.py" freq geom=allcheck

