%nproc=1
%chk=ts3-opt-freq.chk
#p external="python3 -u ../pes/h5co_pes.py" opt=(nomicro,ts,noeigen,calcall)

H + CH3OH -> H2O + CH3

0 2
 H         -0.3584306894       -0.9518221756        1.1402140754
 H         -0.5133960132        0.7371946894        1.0370388274
 H          0.5717249075       -0.8680177525       -1.1017808223
 H          0.4205994005        0.9168091314       -1.1660895317
 H         -1.0532404567       -0.1154867716       -1.1041075695
 C         -0.0150669584       -0.0065252229       -0.8031734430
 O          0.0700725069        0.0226215380        0.6782208933

