%nproc=1
%chk=min-1-opt-freq.chk
#p external="python3 -u ../pes/h4s2_pes.py" opt=(nomicro,calcall,gdiis)

min-1

0 1
 H       0.83132035     -0.99879007     -2.12089943
 H       0.90311120      0.93332716     -2.13141231
 H      -0.14368120      0.00645000      0.76558278
 H      -1.26958970      0.00606785      2.34030664
 S      -0.05635649      0.00196158     -2.05770372
 S       0.04625946     -0.00029703      2.09374630

