%nproc=1
%chk=min-2-opt-freq.chk
#p external="python3 -u ../pes/h4s2_pes.py" opt=(nomicro,calcall,gdiis)

min-2

0 1
 H      -0.91515209      0.73174829     -1.26837585
 H       1.01072635      0.59421128     -1.27532430
 H      -0.01683607     -0.44528413      3.07455736
 H      -0.07543650     -1.18156015      1.27755751
 S      -0.00350801     -0.02381832     -1.89486306
 S       0.01360223      0.03626034      1.82511782

