%nproc=1
%chk=min-3-opt-freq.chk
#p external="python3 -u ../pes/h4s2_pes.py" opt=(nomicro,calcall,gdiis)

min-3

0 1
 H       2.17811259      1.26777902     -0.10315045
 H       0.78598211     -0.06737840      0.07018920
 H      -2.22877989      0.98992332      0.70475074
 H      -2.12528123      0.50491904     -1.16353826
 S       2.12812514     -0.06090647      0.05708364
 S      -2.03466620     -0.13740226      0.00836474

