%nproc=1
%chk=min-5-opt-freq.chk
#p external="python3 -u ../pes/h4s2_pes.py" opt=(nomicro,calcall)

min-5

0 1
 H      -0.04350127      2.27370839     -1.27921197
 H       0.04350127     -2.27370839     -1.27921197
 H      -0.85607633      1.02191426     -0.04966305
 H       0.85607633     -1.02191426     -0.04966305
 S       0.01355618      2.03783270      0.03775103
 S      -0.01355618     -2.03783270      0.03775103

