%nproc=1
%chk=ts-1-opt-freq.chk
#p external="python3 -u ../pes/h4s2_pes.py" opt=(nomicro,calcall,ts,noeigen)

ts-1

0 1
 H      -0.92638270      2.89344273      0.00000000
 H      -0.85306736      0.95081430      0.00000000
 H       0.77904233     -1.49954942      0.96606870
 H       0.77904233     -1.49954942     -0.96606870
 S       0.03076970      1.95707931      0.00000000
 S      -0.02206630     -1.96803551      0.00000000

