%nproc=1
%chk=ts-3-opt-freq.chk
#p external="python3 -u ../pes/h4s2_pes.py" opt=(nomicro,calcall,ts,noeigen)

ts-3

0 1
 H      -0.00000538      0.00007141      0.73048382
 H       0.00000316     -0.00007214     -0.73048227
 H      -1.56155830     -1.25360634      0.00011478
 H       1.56155853      1.25360414     -0.00011382
 S      -1.51147206      0.08794181     -0.00001674
 S       1.51147004     -0.08794389      0.00001823

